tests/data/edenor.raw
@!IC, SBASE,REV,XFRRAT,NXFRAT,BASFRQ
0,   100.00, 34,     1,     1, 50.00     / PSS(R)E-34.9    SUN, JUN 22 2025   9:37
GR 2024-2028 - RESTO VERANO 2025/26.
EDENOR=6307 MW. GBA=11573 MW. SADI=32663 MW.
GENERAL, THRSHZ=0.0001, PQBRAK=0.7, BLOWUP=5.0
GAUSS, ITMX=100, ACCP=1.6, ACCQ=1.6, ACCM=1.0, TOL=0.0001
NEWTON, ITMXN=200, ACCN=1.0, TOLN=0.1, VCTOLQ=0.1, VCTOLV=0.00001, DVLIM=0.99, NDVFCT=0.99
ADJUST, ADJTHR=0.005, ACCTAP=1.0, TAPLIM=0.05, SWVBND=100.0, MXTPSS=99, MXSWIM=10
TYSL, ITMXTY=20, ACCTY=1.0, TOLTY=0.00001
RATING, 1, "RATE1 ", "RATING SET 1                    "
RATING, 2, "RATE2 ", "RATING SET 2                    "
RATING, 3, "RATE3 ", "RATING SET 3                    "
RATING, 4, "RATE4 ", "RATING SET 4                    "
RATING, 5, "RATE5 ", "RATING SET 5                    "
RATING, 6, "RATE6 ", "RATING SET 6                    "
RATING, 7, "RATE7 ", "RATING SET 7                    "
RATING, 8, "RATE8 ", "RATING SET 8                    "
RATING, 9, "RATE9 ", "RATING SET 9                    "
RATING,10, "RATE10", "RATING SET 10                   "
RATING,11, "RATE11", "RATING SET 11                   "
RATING,12, "RATE12", "RATING SET 12                   "
0 / END OF SYSTEM-WIDE DATA, BEGIN BUS DATA
@!   I,'NAME        ', BASKV, IDE,AREA,ZONE,OWNER, VM,        VA,    NVHI,   NVLO,   EVHI,   EVLO
  3008,'OSCARSMI    ', 500.0000,1,   4,   1,  10,1.00000,   0.0000,1.10000,0.90000,1.10000,0.90000
  3014,'O.SMITH     ', 500.0000,1,   4,  42,   1,1.00000,   0.0000,1.10000,0.90000,1.10000,0.90000
  3111,'O.SMITH     ', 220.0000,1,   4,   7,   1,1.00000,   0.0000,1.10000,0.90000,1.10000,0.90000
  3114,'PICASA1     ', 220.0000,1,   4,   7,   1,1.00947, -16.6809,1.10000,0.90000,1.10000,0.90000
  3116,'PICASA2     ', 220.0000,1,   4,   7,   1,0.99588, -18.2059,1.10000,0.90000,1.10000,0.90000
  3120,'1RODR220    ', 220.0000,1,   4,   7,   1,1.00791, -24.5799,1.10000,0.90000,1.10000,0.90000
  3122,'2RODR220    ', 220.0000,1,   4,   7,   1,1.01000, -25.1049,1.10000,0.90000,1.10000,0.90000
  3123,'OSCARSMI    ', 220.0000,1,   4,   7,   1,1.00000,   0.0000,1.10000,0.90000,1.10000,0.90000
  3124,'1CASA220    ', 220.0000,1,   4,   7,   1,1.00804, -16.8507,1.10000,0.90000,1.10000,0.90000
  3126,'2CASA220    ', 220.0000,1,   4,   7,   1,0.99447, -18.3330,1.10000,0.90000,1.10000,0.90000
  3129,'PANTA.220   ', 220.0000,1,   4,   7,   1,1.00095, -17.6864,1.10000,0.90000,1.10000,0.90000
  3130,'1MALA220    ', 220.0000,1,   4,   7,   1,0.99195, -31.0701,1.10000,0.90000,1.10000,0.90000
  3131,'PI.PANT1    ', 220.0000,1,   4,   7,   1,1.01454, -15.9915,1.10000,0.90000,1.10000,0.90000
  3132,'2MALA220    ', 220.0000,1,   4,   7,   1,1.02083, -13.4477,1.10000,0.90000,1.10000,0.90000
  3133,'PI.PANT2    ', 220.0000,1,   4,   7,   1,1.00095, -17.6864,1.10000,0.90000,1.10000,0.90000
  3134,'1MATH220    ', 220.0000,1,   4,   7,   1,0.99111, -28.1146,1.10000,0.90000,1.10000,0.90000
  3135,'PI-PACH     ', 220.0000,1,   4,   7,   1,0.98160, -30.4149,1.10000,0.90000,1.10000,0.90000
  3136,'PI-PACH     ', 220.0000,1,   4,   7,   1,0.98153, -30.4398,1.10000,0.90000,1.10000,0.90000
  3137,'1ZAPA220    ', 220.0000,1,   4,   7,   1,1.00522, -16.7659,1.10000,0.90000,1.10000,0.90000
  3138,'MORON220    ', 220.0000,1,   4,   7,   1,0.99635, -28.8254,1.10000,0.90000,1.10000,0.90000
  3139,'2ZAPA220    ', 220.0000,1,   4,   7,   1,1.00799, -16.1486,1.10000,0.90000,1.10000,0.90000
  3140,'1P-TLAGO    ', 220.0000,1,   4,   7,   1,1.00000,   0.0000,1.10000,0.90000,1.10000,0.90000
  3141,'2P-TLAGO    ', 220.0000,1,   4,   7,   1,1.00000,   0.0000,1.10000,0.90000,1.10000,0.90000
  3142,'PIMAL220    ', 220.0000,1,   4,   7,   1,0.99242, -30.8508,1.10000,0.90000,1.10000,0.90000
  3143,'1PITA220    ', 220.0000,1,   4,   7,   1,0.98080, -30.6046,1.10000,0.90000,1.10000,0.90000
  3147,'2PITA220    ', 220.0000,1,   4,   7,   1,0.98073, -30.6317,1.10000,0.90000,1.10000,0.90000
  3148,'1P-TUNAS    ', 220.0000,1,   4,   7,   1,0.98133, -30.4775,1.10000,0.90000,1.10000,0.90000
  3149,'2P-TUNAS    ', 220.0000,1,   4,   7,   1,0.98125, -30.5032,1.10000,0.90000,1.10000,0.90000
  3150,'COLEG220    ', 220.0000,1,   4,   7,   1,0.99365, -31.3709,1.10000,0.90000,1.10000,0.90000
  3151,'1TALA220    ', 220.0000,1,   4,   7,   1,0.97972, -30.8339,1.10000,0.90000,1.10000,0.90000
  3152,'2TALA220    ', 220.0000,1,   4,   7,   1,0.97963, -30.8638,1.10000,0.90000,1.10000,0.90000
  3157,'PI1-EDIS    ', 220.0000,1,   4,   7,   1,1.00000,   0.0000,1.10000,0.90000,1.10000,0.90000
  3159,'PI-1EDIS    ', 220.0000,1,   4,   7,   1,1.00000,   0.0000,1.10000,0.90000,1.10000,0.90000
  3160,'PNUE.GEN    ', 220.0000,1,   4,   7,   1,0.99693, -31.0041,1.10000,0.90000,1.10000,0.90000
  3162,'EDISON      ', 220.0000,1,   4,   7,   1,0.98926, -31.7474,1.10000,0.90000,1.10000,0.90000
  3163,'PIEDISON    ', 220.0000,1,   4,   7,   1,1.00000,   0.0000,1.10000,0.90000,1.10000,0.90000
  3164,'EDISON      ', 220.0000,1,   4,   7,   1,1.00000,   0.0000,1.10000,0.90000,1.10000,0.90000
  3167,'JCPAZ.220   ', 220.0000,1,   4,   7,   1,1.00245, -26.5208,1.10000,0.90000,1.10000,0.90000
  3169,'2JCPAZ.220  ', 220.0000,1,   4,   7,   1,1.00245, -26.5208,1.10000,0.90000,1.10000,0.90000
  3193,'TRUJUI      ', 220.0000,1,   4,   7,   1,1.00026, -27.6526,1.10000,0.90000,1.10000,0.90000
  3194,'2TRUJUI     ', 220.0000,1,   4,   7,   1,0.99943, -27.4803,1.10000,0.90000,1.10000,0.90000
  3196,'1MALVINA    ', 132.0000,1,   4,   7,   1,1.01060, -27.0184,1.10000,0.90000,1.10000,0.90000
  3197,'3MALVINA    ', 132.0000,1,   4,   7,   1,0.99854, -25.3071,1.10000,0.90000,1.10000,0.90000
  3198,'1CATONAS    ', 132.0000,1,   4,   7,   1,0.99629, -28.1610,1.10000,0.90000,1.10000,0.90000
  3199,'2CATONAS    ', 132.0000,1,   4,   7,   1,0.99899, -27.5110,1.10000,0.90000,1.10000,0.90000
  3202,'2ALTOS      ', 132.0000,1,   4,   7,   1,1.01163, -23.5195,1.10000,0.90000,1.10000,0.90000
  3207,'ALTOS       ', 132.0000,1,   4,   7,   1,1.01063, -23.5791,1.10000,0.90000,1.10000,0.90000
  3210,'AGRONMIA    ', 132.0000,1,   4,   7,   1,1.01691, -39.9719,1.10000,0.90000,1.10000,0.90000
  3212,'1AGRONOM    ', 132.0000,1,   4,   7,   1,1.02697, -37.8181,1.10000,0.90000,1.10000,0.90000
  3213,'AUSTRIA1    ', 132.0000,1,   4,   7,   1,1.02853, -37.7889,1.10000,0.90000,1.10000,0.90000
  3215,'URQUIZA     ', 132.0000,1,   4,   7,   1,1.01787, -39.8618,1.10000,0.90000,1.10000,0.90000
  3219,'P.NUE CE    ', 132.0000,1,   4,   7,   1,1.02802, -17.1486,1.10000,0.90000,1.10000,0.90000
  3224,'1BANCALA    ', 132.0000,1,   4,   7,   1,1.01636, -38.1992,1.10000,0.90000,1.10000,0.90000
  3228,'1BENAVID    ', 132.0000,1,   4,   7,   1,1.00586, -33.8029,1.10000,0.90000,1.10000,0.90000
  3229,'MASCHW1     ', 132.0000,1,   4,   7,   1,1.01106, -33.1674,1.10000,0.90000,1.10000,0.90000
  3232,'1BOULOGN    ', 132.0000,1,   4,   7,   1,1.01930, -38.5190,1.10000,0.90000,1.10000,0.90000
  3234,'MARTINEZ    ', 132.0000,1,   4,   7,   1,1.02349, -38.7085,1.10000,0.90000,1.10000,0.90000
  3235,'AEROCLUB    ', 132.0000,1,   4,   7,   1,1.02371, -24.1680,1.10000,0.90000,1.10000,0.90000
  3237,'2MARTINEZ   ', 132.0000,1,   4,   7,   1,1.02343, -38.7054,1.10000,0.90000,1.10000,0.90000
  3250,'1CASEROS    ', 132.0000,1,   4,   7,   1,1.01725, -34.8466,1.10000,0.90000,1.10000,0.90000
  3251,'SEVEL       ', 132.0000,1,   4,   7,   1,1.01820, -34.7850,1.10000,0.90000,1.10000,0.90000
  3252,'1CASTELA    ', 132.0000,1,   4,   7,   1,1.01648, -34.8944,1.10000,0.90000,1.10000,0.90000
  3258,'CIUDADEL    ', 132.0000,1,   4,   7,   1,1.01594, -23.9247,1.10000,0.90000,1.10000,0.90000
  3259,'2COGHLAN    ', 132.0000,1,   4,   7,   1,1.02681, -38.0473,1.10000,0.90000,1.10000,0.90000
  3260,'1COGHLAN    ', 132.0000,1,   4,   7,   1,1.02707, -37.9885,1.10000,0.90000,1.10000,0.90000
  3262,'COLEG.RO    ', 132.0000,1,   4,   7,   1,1.02705, -38.0032,1.10000,0.90000,1.10000,0.90000
  3263,'SAAVEDRA    ', 132.0000,1,   4,   7,   1,1.02015, -39.6193,1.10000,0.90000,1.10000,0.90000
  3264,'1COLEGIA    ', 132.0000,1,   4,   7,   1,1.02072, -39.5326,1.10000,0.90000,1.10000,0.90000
  3265,'VIDAL       ', 132.0000,1,   4,   7,   1,1.01995, -39.6118,1.10000,0.90000,1.10000,0.90000
  3274,'1DELVISO    ', 132.0000,1,   4,   7,   1,1.01380, -32.2833,1.10000,0.90000,1.10000,0.90000
  3275,'2DELVISO    ', 132.0000,1,   4,   7,   1,1.01502, -32.1814,1.10000,0.90000,1.10000,0.90000
  3276,'1PIVISO     ', 132.0000,1,   4,   7,   1,1.01478, -32.1916,1.10000,0.90000,1.10000,0.90000
  3277,'2PIVISO     ', 132.0000,1,   4,   7,   1,1.01582, -32.1046,1.10000,0.90000,1.10000,0.90000
  3290,'2EDISON     ', 132.0000,1,   4,   7,   1,1.02081, -39.5377,1.10000,0.90000,1.10000,0.90000
  3291,'1PITORTUG   ', 132.0000,1,   4,   7,   1,1.01656, -32.0321,1.10000,0.90000,1.10000,0.90000
  3292,'1EDISON     ', 132.0000,1,   4,   7,   1,1.02388, -38.7277,1.10000,0.90000,1.10000,0.90000
  3293,'1TORTUGU    ', 132.0000,1,   4,   7,   1,1.01610, -32.0779,1.10000,0.90000,1.10000,0.90000
  3295,'PIJCPAZ682  ', 132.0000,1,   4,   7,   1,1.01772, -31.9367,1.10000,0.90000,1.10000,0.90000
  3297,'2TORTUGU    ', 132.0000,1,   4,   7,   1,1.01680, -32.0319,1.10000,0.90000,1.10000,0.90000
  3298,'P.UNIDAS    ', 132.0000,1,   4,   7,   1,1.01911, -23.7051,1.10000,0.90000,1.10000,0.90000
  3299,'P.UNIDAS    ', 132.0000,1,   4,   7,   1,1.01911, -23.7051,1.10000,0.90000,1.10000,0.90000
  3301,'TESEI       ', 132.0000,1,   4,   7,   1,1.00000,   0.0000,1.10000,0.90000,1.10000,0.90000
  3302,'PILAR13     ', 132.0000,1,   4,   7,   1,1.01207, -32.8558,1.10000,0.90000,1.10000,0.90000
  3303,'2PILAR13    ', 132.0000,1,   4,   7,   1,1.01207, -32.8558,1.10000,0.90000,1.10000,0.90000
  3304,'ANIVERSARIO ', 132.0000,1,   4,   7,   1,1.02503, -38.7590,1.10000,0.90000,1.10000,0.90000
  3305,'2TESEI      ', 132.0000,1,   4,   7,   1,1.00000,   0.0000,1.10000,0.90000,1.10000,0.90000
  3307,'AGUAS       ', 132.0000,1,   4,   7,   1,1.02617, -38.6722,1.10000,0.90000,1.10000,0.90000
  3309,'TECNOPOLIS  ', 132.0000,1,   4,   7,   1,1.02712, -37.9252,1.10000,0.90000,1.10000,0.90000
  3310,'1FORD       ', 132.0000,1,   4,   7,   1,1.01232, -37.8778,1.10000,0.90000,1.10000,0.90000
  3313,'MORENO      ', 132.0000,1,   4,   7,   1,1.00002, -25.2047,1.10000,0.90000,1.10000,0.90000
  3314,'1G.CATAN    ', 132.0000,1,   4,   7,   1,1.01168, -23.2607,1.10000,0.90000,1.10000,0.90000
  3315,'2MORENO     ', 132.0000,1,   4,   7,   1,0.99987, -25.2365,1.10000,0.90000,1.10000,0.90000
  3316,'3G.CATAN    ', 132.0000,1,   4,   7,   1,1.01051, -23.3282,1.10000,0.90000,1.10000,0.90000
  3317,'EL CRUCE    ', 132.0000,1,   4,   7,   1,1.00000,   0.0000,1.10000,0.90000,1.10000,0.90000
  3323,'EL CRUCE    ', 132.0000,1,   4,   7,   1,1.00000,   0.0000,1.10000,0.90000,1.10000,0.90000
  3324,'1GUEMES     ', 132.0000,1,   4,   7,   1,1.02679, -37.9792,1.10000,0.90000,1.10000,0.90000
  3325,'POLLEDO     ', 132.0000,1,   4,   7,   1,1.02556, -23.8616,1.10000,0.90000,1.10000,0.90000
  3333,'2RODR132    ', 132.0000,1,   4,   7,   1,1.01776, -26.9418,1.10000,0.90000,1.10000,0.90000
  3334,'1HURLING    ', 132.0000,1,   4,   7,   1,1.02026, -34.5962,1.10000,0.90000,1.10000,0.90000
  3335,'LIBERTAD    ', 132.0000,1,   4,   7,   1,1.00521, -23.7080,1.10000,0.90000,1.10000,0.90000
  3336,'2LIBERTAD   ', 132.0000,1,   4,   7,   1,1.00522, -23.7069,1.10000,0.90000,1.10000,0.90000
  3337,'RODR132     ', 132.0000,1,   4,   7,   1,1.01776, -26.9418,1.10000,0.90000,1.10000,0.90000
  3338,'CASANOVA    ', 132.0000,1,   4,   7,   1,1.02127, -23.5025,1.10000,0.90000,1.10000,0.90000
  3339,'1MPAZ       ', 132.0000,1,   4,   7,   1,1.00511, -21.8937,1.10000,0.90000,1.10000,0.90000
  3341,'PONTEV1     ', 132.0000,1,   4,   7,   1,1.00460, -23.3066,1.10000,0.90000,1.10000,0.90000
  3342,'1ITUZAIN    ', 132.0000,1,   4,   7,   1,0.99615, -24.7812,1.10000,0.90000,1.10000,0.90000
  3343,'PANTANOSA   ', 132.0000,1,   4,   7,   1,1.00306, -23.4905,1.10000,0.90000,1.10000,0.90000
  3344,'2ITUZAIN    ', 132.0000,1,   4,   7,   1,0.99619, -24.7726,1.10000,0.90000,1.10000,0.90000
  3345,'1PI-ITUZ    ', 132.0000,1,   4,   7,   1,0.99838, -24.5245,1.10000,0.90000,1.10000,0.90000
  3346,'2PI-ITUZ    ', 132.0000,1,   4,   7,   1,0.99848, -24.5147,1.10000,0.90000,1.10000,0.90000
  3349,'1ZAPPALO    ', 132.0000,1,   4,   7,   1,1.00744, -23.4227,1.10000,0.90000,1.10000,0.90000
  3350,'1MATANZA    ', 132.0000,1,   4,   7,   1,1.02532, -26.2450,1.10000,0.90000,1.10000,0.90000
  3351,'2MATANZA    ', 132.0000,1,   4,   7,   1,1.01923, -23.7030,1.10000,0.90000,1.10000,0.90000
  3359,'MANZONE     ', 132.0000,1,   4,   7,   1,1.01348, -27.4075,1.10000,0.90000,1.10000,0.90000
  3360,'1LA REJA    ', 132.0000,1,   4,   7,   1,0.99948, -25.0677,1.10000,0.90000,1.10000,0.90000
  3361,'2LA REJA    ', 132.0000,1,   4,   7,   1,0.99942, -25.0980,1.10000,0.90000,1.10000,0.90000
  3362,'1PASOREY    ', 132.0000,1,   4,   7,   1,1.00011, -24.7986,1.10000,0.90000,1.10000,0.90000
  3363,'2PASOREY    ', 132.0000,1,   4,   7,   1,0.99992, -24.8570,1.10000,0.90000,1.10000,0.90000
  3364,'1LIBERTA    ', 132.0000,1,   4,   7,   1,1.02601, -38.6590,1.10000,0.90000,1.10000,0.90000
  3367,'2SUAREZ     ', 132.0000,1,   4,   7,   1,1.00725, -20.5741,1.10000,0.90000,1.10000,0.90000
  3371,'MALAVER     ', 132.0000,1,   4,   7,   1,1.00893, -20.3596,1.10000,0.90000,1.10000,0.90000
  3372,'MALAMARR    ', 132.0000,1,   4,   7,   1,1.02920, -37.5663,1.10000,0.90000,1.10000,0.90000
  3373,'1SUAREZ     ', 132.0000,1,   4,   7,   1,1.00718, -20.5889,1.10000,0.90000,1.10000,0.90000
  3374,'1MATHEU     ', 132.0000,1,   4,   7,   1,1.02240, -31.9673,1.10000,0.90000,1.10000,0.90000
  3375,'1DERQUI     ', 132.0000,1,   4,   7,   1,1.01434, -32.5761,1.10000,0.90000,1.10000,0.90000
  3376,'2MATHEU     ', 132.0000,1,   4,   7,   1,1.01396, -32.2263,1.10000,0.90000,1.10000,0.90000
  3377,'1ELPINO     ', 132.0000,1,   4,   7,   1,1.02127, -21.3215,1.10000,0.90000,1.10000,0.90000
  3378,'M.BENZ      ', 132.0000,1,   4,   7,   1,1.02127, -21.3215,1.10000,0.90000,1.10000,0.90000
  3379,'2ELPINO     ', 132.0000,1,   4,   7,   1,1.02179, -21.2976,1.10000,0.90000,1.10000,0.90000
  3380,'1MERLO      ', 132.0000,1,   4,   7,   1,1.00358, -23.9033,1.10000,0.90000,1.10000,0.90000
  3382,'MIGUELET    ', 132.0000,1,   4,   7,   1,1.02779, -37.7114,1.10000,0.90000,1.10000,0.90000
  3383,'M.BENZ1     ', 132.0000,1,   4,   7,   1,1.02149, -21.3469,1.10000,0.90000,1.10000,0.90000
  3386,'1MORON      ', 132.0000,1,   4,   7,   1,1.02239, -34.4500,1.10000,0.90000,1.10000,0.90000
  3387,'2MORON      ', 132.0000,1,   4,   7,   1,0.99431, -24.8900,1.10000,0.90000,1.10000,0.90000
  3388,'1MUNRO      ', 132.0000,1,   4,   7,   1,1.02774, -37.8360,1.10000,0.90000,1.10000,0.90000
  3389,'3MORON      ', 132.0000,1,   4,   7,   1,1.02239, -34.4500,1.10000,0.90000,1.10000,0.90000
  3390,'1NOGUES     ', 132.0000,1,   4,   7,   1,1.01829, -35.1411,1.10000,0.90000,1.10000,0.90000
  3391,'2NOGUES     ', 132.0000,1,   4,   7,   1,1.01804, -35.1341,1.10000,0.90000,1.10000,0.90000
  3392,'MIGUELT2    ', 132.0000,1,   4,   7,   1,1.02779, -37.7105,1.10000,0.90000,1.10000,0.90000
  3394,'N.PUE CE    ', 132.0000,1,   4,   7,   1,1.02799, -17.1537,1.10000,0.90000,1.10000,0.90000
  3395,'2MUNRO      ', 132.0000,1,   4,   7,   1,1.02837, -37.6840,1.10000,0.90000,1.10000,0.90000
  3396,'N.PUE VI    ', 132.0000,1,   4,   7,   1,1.02900, -38.3761,1.10000,0.90000,1.10000,0.90000
  3397,'SAN ALBERTO ', 132.0000,1,   4,   7,   1,0.99770, -24.6169,1.10000,0.90000,1.10000,0.90000
  3398,'CENTE.BA    ', 132.0000,1,   4,   8,   1,1.02630, -19.5071,1.10000,0.90000,1.10000,0.90000
  3399,'CENTEN2     ', 132.0000,1,   4,   8,   1,1.02419, -19.6787,1.10000,0.90000,1.10000,0.90000
  3405,'SAN ALBERTO2', 132.0000,1,   4,   7,   1,0.99798, -24.5825,1.10000,0.90000,1.10000,0.90000
  3411,'1GAONA      ', 132.0000,1,   4,   7,   1,0.99833, -25.2967,1.10000,0.90000,1.10000,0.90000
  3412,'2GAONA      ', 132.0000,1,   4,   7,   1,0.99831, -25.3097,1.10000,0.90000,1.10000,0.90000
  3420,'1PILAR      ', 132.0000,1,   4,   7,   1,1.01062, -27.6553,1.10000,0.90000,1.10000,0.90000
  3427,'PARQUE      ', 132.0000,1,   4,   7,   1,1.00750, -27.8302,1.10000,0.90000,1.10000,0.90000
  3428,'P.N.GEN     ', 132.0000,1,   4,   7,   1,1.02900, -26.0534,1.10000,0.90000,1.10000,0.90000
  3430,'P.NUE RO    ', 132.0000,1,   4,   7,   1,1.02900, -37.6994,1.10000,0.90000,1.10000,0.90000
  3431,'MELO        ', 132.0000,1,   4,   7,   1,1.02764, -37.9425,1.10000,0.90000,1.10000,0.90000
  3434,'1R.MEJIA    ', 132.0000,1,   4,   7,   1,1.01655, -34.8904,1.10000,0.90000,1.10000,0.90000
  3435,'LUZRIAGA    ', 132.0000,1,   4,   7,   1,1.01742, -23.8484,1.10000,0.90000,1.10000,0.90000
  3436,'2R.MEJIA    ', 132.0000,1,   4,   7,   1,1.01687, -23.8856,1.10000,0.90000,1.10000,0.90000
  3439,'2PILAR      ', 132.0000,1,   4,   7,   1,1.01207, -32.8558,1.10000,0.90000,1.10000,0.90000
  3444,'1ROTONDA    ', 132.0000,1,   4,   7,   1,1.02838, -37.6341,1.10000,0.90000,1.10000,0.90000
  3445,'2ROTONDA    ', 132.0000,1,   4,   7,   1,1.02779, -37.6362,1.10000,0.90000,1.10000,0.90000
  3448,'1SISIDRO    ', 132.0000,1,   4,   7,   1,1.01921, -39.6538,1.10000,0.90000,1.10000,0.90000
  3450,'1JUST132    ', 132.0000,1,   4,   7,   1,1.01773, -23.8245,1.10000,0.90000,1.10000,0.90000
  3451,'1ORO VERDE  ', 132.0000,1,   4,   7,   1,1.01400, -22.7659,1.10000,0.90000,1.10000,0.90000
  3452,'S.MIGUEL    ', 132.0000,1,   4,   7,   1,1.01645, -32.1830,1.10000,0.90000,1.10000,0.90000
  3453,'MUNIZ       ', 132.0000,1,   4,   7,   1,1.01487, -32.4125,1.10000,0.90000,1.10000,0.90000
  3454,'STA.RITA    ', 132.0000,1,   4,   8,   1,1.02652, -37.8459,1.10000,0.90000,1.10000,0.90000
  3455,'2ORO VERDE  ', 132.0000,1,   4,   7,   1,1.01304, -22.7589,1.10000,0.90000,1.10000,0.90000
  3456,'1SA.ROSA    ', 132.0000,1,   4,   7,   1,1.01921, -23.7040,1.10000,0.90000,1.10000,0.90000
  3457,'JC. PAZ     ', 132.0000,1,   4,   7,   1,1.02018, -31.6345,1.10000,0.90000,1.10000,0.90000
  3459,'2SA.ROSA    ', 132.0000,1,   4,   7,   1,1.01881, -23.7412,1.10000,0.90000,1.10000,0.90000
  3466,'1TALAR      ', 132.0000,1,   4,   7,   1,1.01445, -37.6591,1.10000,0.90000,1.10000,0.90000
  3467,'2TALAR      ', 132.0000,1,   4,   7,   1,1.01445, -37.6591,1.10000,0.90000,1.10000,0.90000
  3468,'1TAPIALE    ', 132.0000,1,   4,   7,   1,1.01249, -23.9989,1.10000,0.90000,1.10000,0.90000
  3469,'1PI-TALA    ', 132.0000,1,   4,   7,   1,1.01340, -37.7813,1.10000,0.90000,1.10000,0.90000
  3470,'2TAPIALE    ', 132.0000,1,   4,   7,   1,1.01189, -24.0306,1.10000,0.90000,1.10000,0.90000
  3471,'1SFERNAN    ', 132.0000,1,   4,   7,   1,1.00827, -38.3784,1.10000,0.90000,1.10000,0.90000
  3472,'1PITAPIA    ', 132.0000,1,   4,   7,   1,1.01496, -23.7764,1.10000,0.90000,1.10000,0.90000
  3473,'1PI-VICTORIA', 132.0000,1,   4,   7,   1,1.00730, -38.4860,1.10000,0.90000,1.10000,0.90000
  3474,'2PITAPIA    ', 132.0000,1,   4,   7,   1,1.01437, -23.8077,1.10000,0.90000,1.10000,0.90000
  3475,'2DERQUI     ', 132.0000,1,   4,   7,   1,1.01434, -32.5762,1.10000,0.90000,1.10000,0.90000
  3478,'1TIGRE      ', 132.0000,1,   4,   7,   1,1.00519, -38.7859,1.10000,0.90000,1.10000,0.90000
  3479,'1NDELTA     ', 132.0000,1,   4,   7,   1,1.00471, -38.9571,1.10000,0.90000,1.10000,0.90000
  3481,'2JUST132    ', 132.0000,1,   4,   7,   1,1.01773, -23.8245,1.10000,0.90000,1.10000,0.90000
  3483,'LUZURIAGA2  ', 132.0000,1,   4,   7,   1,1.01742, -23.8484,1.10000,0.90000,1.10000,0.90000
  3485,'2MANZONE    ', 132.0000,1,   4,   7,   1,1.01348, -27.4074,1.10000,0.90000,1.10000,0.90000
  3487,'2PARQUE     ', 132.0000,1,   4,   7,   1,1.00750, -27.8302,1.10000,0.90000,1.10000,0.90000
  3489,'PACHECO     ', 132.0000,1,   4,   7,   1,1.00000,   0.0000,1.10000,0.90000,1.10000,0.90000
  3490,'1V.LOPEZ    ', 132.0000,1,   4,   7,   1,1.02454, -38.7278,1.10000,0.90000,1.10000,0.90000
  3491,'PINAZO      ', 132.0000,1,   4,   7,   1,1.01659, -31.9892,1.10000,0.90000,1.10000,0.90000
  3492,'1VICTORI    ', 132.0000,1,   4,   7,   1,1.01811, -39.7206,1.10000,0.90000,1.10000,0.90000
  3493,'2JC. PAZ    ', 132.0000,1,   4,   7,   1,1.01839, -35.1410,1.10000,0.90000,1.10000,0.90000
  3494,'1VADELIN    ', 132.0000,1,   4,   7,   1,1.00679, -20.6330,1.10000,0.90000,1.10000,0.90000
  3495,'ACOSTA      ', 132.0000,1,   4,   7,   1,1.00000,   0.0000,1.10000,0.90000,1.10000,0.90000
  3496,'2VADELIN    ', 132.0000,1,   4,   7,   1,1.00688, -20.6167,1.10000,0.90000,1.10000,0.90000
  3497,'2ACOSTA     ', 132.0000,1,   4,   7,   1,1.00000,   0.0000,1.10000,0.90000,1.10000,0.90000
  3498,'CRESP.BA    ', 132.0000,1,   4,   8,   1,1.02596, -19.5300,1.10000,0.90000,1.10000,0.90000
  3499,'CRESPO2     ', 132.0000,1,   4,   8,   1,1.02359, -19.7189,1.10000,0.90000,1.10000,0.90000
  3512,'AGROSUR     ',  27.5000,1,   4,   7,   1,1.00068, -40.4649,1.10000,0.90000,1.10000,0.90000
  3522,'NPUESUR     ',  27.5000,1,   4,   7,   1,1.00000,   0.0000,1.10000,0.90000,1.10000,0.90000
  3523,'NPUENOR     ',  27.5000,1,   4,   7,   1,1.02799, -17.1537,1.10000,0.90000,1.10000,0.90000
  3527,'PNUE.S1     ',  27.5000,1,   4,   7,   1,1.00000,   0.0000,1.10000,0.90000,1.10000,0.90000
...
0 / END OF BUS DATA, BEGIN LOAD DATA
@!   I,'ID',STAT,AREA,ZONE,      PL,        QL,        IP,        IQ,        YP,        YQ, OWNER,SCALE,INTRPT,  DGENP,     DGENQ, DGENF
  3193,'1 ',   1,   4,   7,    30.010,    12.730,     0.000,     0.000,     0.000,     0.000,   1,    1,  0,     0.000,     0.000,   0
  3194,'2 ',   1,   4,   7,    30.010,    12.730,     0.000,     0.000,     0.000,     0.000,   1,    1,  0,     0.000,     0.000,   0
  3196,'1 ',   1,   4,   7,    26.830,    11.290,     0.000,     0.000,     0.000,     0.000,   1,    1,  0,     0.000,     0.000,   0
  3196,'2 ',   1,   4,   7,    26.830,    11.290,     0.000,     0.000,     0.000,     0.000,   1,    1,  0,     0.000,     0.000,   0
  3196,'5 ',   1,   4,   7,    26.830,    11.340,     0.000,     0.000,     0.000,     0.000,   1,    1,  0,     0.000,     0.000,   0
  3198,'1 ',   1,   4,   7,    47.020,    20.870,     0.000,     0.000,     0.000,     0.000,   1,    1,  0,     0.000,     0.000,   0
  3199,'2 ',   1,   4,   7,    47.020,    21.160,     0.000,     0.000,     0.000,     0.000,   1,    1,  0,     0.000,     0.000,   0
  3202,'1 ',   1,   4,   7,    37.070,    15.040,     0.000,     0.000,     0.000,     0.000,   1,    1,  0,     0.000,     0.000,   0
  3207,'2 ',   1,   4,   7,    37.070,    14.810,     0.000,     0.000,     0.000,     0.000,   1,    1,  0,     0.000,     0.000,   0
  3210,'3 ',   1,   4,   7,    22.960,     7.890,     0.000,     0.000,     0.000,     0.000,   1,    1,  0,     0.000,     0.000,   0
  3210,'4 ',   1,   4,   7,    22.960,     7.920,     0.000,     0.000,     0.000,     0.000,   1,    1,  0,     0.000,     0.000,   0
  3210,'5 ',   1,   4,   7,    22.960,     7.830,     0.000,     0.000,     0.000,     0.000,   1,    1,  0,     0.000,     0.000,   0
  3212,'SC',   1,   4,   7,     0.000,     0.000,     0.000,     0.000,     0.000,     0.000,   1,    1,  0,     0.000,     0.000,   0
  3213,'1 ',   1,   4,   7,    38.710,    15.060,     0.000,     0.000,     0.000,     0.000,   1,    1,  0,     0.000,     0.000,   0
  3215,'1 ',   1,   4,   7,    24.700,     8.680,     0.000,     0.000,     0.000,     0.000,   1,    1,  0,     0.000,     0.000,   0
  3215,'3 ',   1,   4,   7,    24.700,     8.680,     0.000,     0.000,     0.000,     0.000,   1,    1,  0,     0.000,     0.000,   0
  3215,'4 ',   1,   4,   7,    24.700,     8.690,     0.000,     0.000,     0.000,     0.000,   1,    1,  0,     0.000,     0.000,   0
  3219,'SC',   1,   4,   7,     0.000,     0.000,     0.000,     0.000,     0.000,     0.000,   1,    1,  0,     0.000,     0.000,   0
  3224,'1 ',   1,   4,   7,    29.310,    12.290,     0.000,     0.000,     0.000,     0.000,   1,    1,  0,     0.000,     0.000,   0
  3228,'1 ',   1,   4,   7,    28.010,    11.510,     0.000,     0.000,     0.000,     0.000,   1,    1,  0,     0.000,     0.000,   0
  3228,'4 ',   1,   4,   7,    28.010,    11.640,     0.000,     0.000,     0.000,     0.000,   1,    1,  0,     0.000,     0.000,   0
  3229,'1 ',   1,   4,   7,    29.440,    12.220,     0.000,     0.000,     0.000,     0.000,   1,    1,  0,     0.000,     0.000,   0
  3229,'3 ',   1,   4,   7,    24.760,    10.110,     0.000,     0.000,     0.000,     0.000,   1,    1,  0,     0.000,     0.000,   0
  3232,'1 ',   1,   4,   7,    27.800,    10.140,     0.000,     0.000,     0.000,     0.000,   1,    1,  0,     0.000,     0.000,   0
  3234,'2 ',   1,   4,   7,    15.790,     5.320,     0.000,     0.000,     0.000,     0.000,   1,    1,  0,     0.000,     0.000,   0
  3235,'1 ',   1,   4,   7,    45.120,    19.550,     0.000,     0.000,     0.000,     0.000,   1,    1,  0,     0.000,     0.000,   0
  3237,'1 ',   1,   4,   7,    15.790,     5.320,     0.000,     0.000,     0.000,     0.000,   1,    1,  0,     0.000,     0.000,   0
  3250,'1 ',   1,   4,   7,    30.090,    12.360,     0.000,     0.000,     0.000,     0.000,   1,    1,  0,     0.000,     0.000,   0
  3250,'2 ',   1,   4,   7,    30.090,    12.210,     0.000,     0.000,     0.000,     0.000,   1,    1,  0,     0.000,     0.000,   0
  3251,'AT',   1,   4,   7,     6.920,     3.950,     0.000,     0.000,     0.000,     0.000,   1,    0,  0,     0.000,     0.000,   0
  3252,'1 ',   1,   4,   7,    66.190,    34.040,     0.000,     0.000,     0.000,     0.000,   1,    1,  0,     0.000,     0.000,   0
  3258,'1 ',   1,   4,   7,    57.200,    28.890,     0.000,     0.000,     0.000,     0.000,   1,    1,  0,     0.000,     0.000,   0
  3259,'1 ',   1,   4,   7,    23.940,     8.340,     0.000,     0.000,     0.000,     0.000,   1,    1,  0,     0.000,     0.000,   0
  3260,'2 ',   1,   4,   7,    23.940,     8.340,     0.000,     0.000,     0.000,     0.000,   1,    1,  0,     0.000,     0.000,   0
  3262,'1 ',   1,   4,   7,    45.260,    18.590,     0.000,     0.000,     0.000,     0.000,   1,    1,  0,     0.000,     0.000,   0
  3262,'3 ',   1,   4,   7,    45.260,    18.870,     0.000,     0.000,     0.000,     0.000,   1,    1,  0,     0.000,     0.000,   0
  3263,'1 ',   1,   4,   7,    25.810,     9.060,     0.000,     0.000,     0.000,     0.000,   1,    1,  0,     0.000,     0.000,   0
  3263,'2 ',   1,   4,   7,    25.810,     9.070,     0.000,     0.000,     0.000,     0.000,   1,    1,  0,     0.000,     0.000,   0
  3263,'3 ',   1,   4,   7,    25.810,     9.090,     0.000,     0.000,     0.000,     0.000,   1,    1,  0,     0.000,     0.000,   0
  3264,'2 ',   1,   4,   7,    10.990,     3.360,     0.000,     0.000,     0.000,     0.000,   1,    1,  0,     0.000,     0.000,   0
  3264,'4 ',   1,   4,   7,    10.990,     3.370,     0.000,     0.000,     0.000,     0.000,   1,    1,  0,     0.000,     0.000,   0
  3265,'1 ',   1,   4,   7,    53.430,    23.220,     0.000,     0.000,     0.000,     0.000,   1,    1,  0,     0.000,     0.000,   0
  3265,'2 ',   1,   4,   7,    53.430,    23.200,     0.000,     0.000,     0.000,     0.000,   1,    1,  0,     0.000,     0.000,   0
  3274,'1 ',   1,   4,   7,    36.360,    15.220,     0.000,     0.000,     0.000,     0.000,   1,    1,  0,     0.000,     0.000,   0
  3275,'2 ',   1,   4,   7,    36.360,    15.220,     0.000,     0.000,     0.000,     0.000,   1,    1,  0,     0.000,     0.000,   0
  3290,'21',   1,   4,   7,     9.440,     4.540,     0.000,     0.000,     0.000,     0.000,   1,    0,  0,     0.000,     0.000,   0
  3290,'3 ',   1,   4,   7,    27.950,    11.770,     0.000,     0.000,     0.000,     0.000,   1,    1,  0,     0.000,     0.000,   0
  3290,'4 ',   1,   4,   7,    27.950,    11.620,     0.000,     0.000,     0.000,     0.000,   1,    1,  0,     0.000,     0.000,   0
  3292,'1 ',   1,   4,   7,    27.950,    11.610,     0.000,     0.000,     0.000,     0.000,   1,    1,  0,     0.000,     0.000,   0
  3292,'2 ',   1,   4,   7,    27.950,    10.210,     0.000,     0.000,     0.000,     0.000,   1,    1,  0,     0.000,     0.000,   0
  3293,'1 ',   1,   4,   7,    53.340,    25.110,     0.000,     0.000,     0.000,     0.000,   1,    1,  0,     0.000,     0.000,   0
  3297,'2 ',   1,   4,   7,    53.340,    24.770,     0.000,     0.000,     0.000,     0.000,   1,    1,  0,     0.000,     0.000,   0
  3301,'1 ',   1,   4,   7,     0.000,     0.000,     0.000,     0.000,     0.000,     0.000,   1,    1,  0,     0.000,     0.000,   0
  3302,'1 ',   1,   4,   7,    20.360,     9.390,     0.000,     0.000,     0.000,     0.000,   1,    1,  0,     0.000,     0.000,   0
  3303,'2 ',   1,   4,   7,    20.360,     9.390,     0.000,     0.000,     0.000,     0.000,   1,    1,  0,     0.000,     0.000,   0
  3304,'1 ',   1,   4,   7,    32.840,    12.360,     0.000,     0.000,     0.000,     0.000,   1,    1,  0,     0.000,     0.000,   0
  3304,'2 ',   1,   4,   7,    32.840,    12.480,     0.000,     0.000,     0.000,     0.000,   1,    1,  0,     0.000,     0.000,   0
  3305,'2 ',   1,   4,   7,     0.000,     0.000,     0.000,     0.000,     0.000,     0.000,   1,    1,  0,     0.000,     0.000,   0
  3307,'1 ',   1,   4,   7,    24.240,     8.400,     0.000,     0.000,     0.000,     0.000,   1,    1,  0,     0.000,     0.000,   0
  3307,'2 ',   1,   4,   7,    24.240,     8.410,     0.000,     0.000,     0.000,     0.000,   1,    1,  0,     0.000,     0.000,   0
  3307,'3 ',   1,   4,   7,    12.120,     4.030,     0.000,     0.000,     0.000,     0.000,   1,    1,  0,     0.000,     0.000,   0
  3309,'1 ',   1,   4,   7,    19.290,     7.350,     0.000,     0.000,     0.000,     0.000,   1,    1,  0,     0.000,     0.000,   0
  3309,'2 ',   1,   4,   7,    19.290,     7.290,     0.000,     0.000,     0.000,     0.000,   1,    1,  0,     0.000,     0.000,   0
  3310,'1 ',   1,   4,   7,    30.920,    13.140,     0.000,     0.000,     0.000,     0.000,   1,    1,  0,     0.000,     0.000,   0
  3313,'1 ',   1,   4,   7,    13.520,     5.170,     0.000,     0.000,     0.000,     0.000,   1,    1,  0,     0.000,     0.000,   0
  3314,'1 ',   1,   4,   7,    21.320,     8.220,     0.000,     0.000,     0.000,     0.000,   1,    1,  0,     0.000,     0.000,   0
  3314,'33',   1,   4,   7,     0.000,     0.000,     0.000,     0.000,     0.000,     0.000,   1,    1,  0,     0.000,     0.000,   0
  3315,'2 ',   1,   4,   7,    13.520,     5.170,     0.000,     0.000,     0.000,     0.000,   1,    1,  0,     0.000,     0.000,   0
  3316,'2 ',   1,   4,   7,    21.320,     8.180,     0.000,     0.000,     0.000,     0.000,   1,    1,  0,     0.000,     0.000,   0
  3316,'33',   1,   4,   7,     0.000,     0.000,     0.000,     0.000,     0.000,     0.000,   1,    1,  0,     0.000,     0.000,   0
  3317,'1 ',   1,   4,   7,     0.000,     0.000,     0.000,     0.000,     0.000,     0.000,   1,    1,  0,     0.000,     0.000,   0
  3323,'2 ',   1,   4,   7,     0.000,     0.000,     0.000,     0.000,     0.000,     0.000,   1,    1,  0,     0.000,     0.000,   0
  3324,'1 ',   1,   4,   7,    53.060,    23.710,     0.000,     0.000,     0.000,     0.000,   1,    1,  0,     0.000,     0.000,   0
  3324,'2 ',   1,   4,   7,    53.060,    23.710,     0.000,     0.000,     0.000,     0.000,   1,    1,  0,     0.000,     0.000,   0
  3325,'1 ',   1,   4,   7,     0.000,     0.000,     0.000,     0.000,     0.000,     0.000,   1,    1,  0,     0.000,     0.000,   0
  3334,'2 ',   1,   4,   7,    32.590,    12.750,     0.000,     0.000,     0.000,     0.000,   1,    1,  0,     0.000,     0.000,   0
  3334,'3 ',   1,   4,   7,    32.590,    12.930,     0.000,     0.000,     0.000,     0.000,   1,    1,  0,     0.000,     0.000,   0
  3335,'1 ',   1,   4,   7,    26.840,    11.070,     0.000,     0.000,     0.000,     0.000,   1,    1,  0,     0.000,     0.000,   0
  3336,'2 ',   1,   4,   7,    26.840,    11.000,     0.000,     0.000,     0.000,     0.000,   1,    1,  0,     0.000,     0.000,   0
  3338,'SC',   1,   4,   7,     0.000,     0.000,     0.000,     0.000,     0.000,     0.000,   1,    1,  0,     0.000,     0.000,   0
  3339,'1 ',   1,   4,   7,    23.460,     9.270,     0.000,     0.000,     0.000,     0.000,   1,    1,  0,     0.000,     0.000,   0
  3339,'3 ',   1,   4,   7,    14.160,     5.670,     0.000,     0.000,     0.000,     0.000,   1,    1,  0,     0.000,     0.000,   0
  3341,'1 ',   1,   4,   7,    25.030,    10.170,     0.000,     0.000,     0.000,     0.000,   1,    1,  0,     0.000,     0.000,   0
  3342,'1 ',   1,   4,   7,    32.080,    12.670,     0.000,     0.000,     0.000,     0.000,   1,    1,  0,     0.000,     0.000,   0
  3343,'1 ',   1,   4,   7,    24.250,     9.850,     0.000,     0.000,     0.000,     0.000,   1,    1,  0,     0.000,     0.000,   0
  3344,'2 ',   1,   4,   7,    32.080,    12.670,     0.000,     0.000,     0.000,     0.000,   1,    1,  0,     0.000,     0.000,   0
  3351,'1 ',   1,   4,   7,    39.840,    17.310,     0.000,     0.000,     0.000,     0.000,   1,    1,  0,     0.000,     0.000,   0
  3351,'3 ',   1,   4,   7,    19.920,     7.420,     0.000,     0.000,     0.000,     0.000,   1,    1,  0,     0.000,     0.000,   0
  3351,'4 ',   1,   4,   7,    39.840,    17.490,     0.000,     0.000,     0.000,     0.000,   1,    1,  0,     0.000,     0.000,   0
  3359,'1 ',   1,   4,   7,    28.520,    11.830,     0.000,     0.000,     0.000,     0.000,   1,    1,  0,     0.000,     0.000,   0
  3360,'1 ',   1,   4,   7,    25.990,    10.680,     0.000,     0.000,     0.000,     0.000,   1,    1,  0,     0.000,     0.000,   0
  3361,'2 ',   1,   4,   7,    25.990,    10.680,     0.000,     0.000,     0.000,     0.000,   1,    1,  0,     0.000,     0.000,   0
  3362,'1 ',   1,   4,   7,    46.850,    22.800,     0.000,     0.000,     0.000,     0.000,   1,    1,  0,     0.000,     0.000,   0
  3363,'2 ',   1,   4,   7,    46.850,    22.750,     0.000,     0.000,     0.000,     0.000,   1,    1,  0,     0.000,     0.000,   0
  3364,'1 ',   1,   4,   7,    26.940,     9.660,     0.000,     0.000,     0.000,     0.000,   1,    1,  0,     0.000,     0.000,   0
  3364,'2 ',   1,   4,   7,    26.940,     9.660,     0.000,     0.000,     0.000,     0.000,   1,    1,  0,     0.000,     0.000,   0
  3367,'SC',   1,   4,   7,     0.000,     0.000,     0.000,     0.000,     0.000,     0.000,   1,    1,  0,     0.000,     0.000,   0
  3371,'2 ',   1,   4,   7,    61.770,    31.750,     0.000,     0.000,     0.000,     0.000,   1,    1,  0,     0.000,     0.000,   0
  3371,'4 ',   1,   4,   7,    61.770,    31.230,     0.000,     0.000,     0.000,     0.000,   1,    1,  0,     0.000,     0.000,   0
  3373,'SC',   1,   4,   7,     0.000,     0.000,     0.000,     0.000,     0.000,     0.000,   1,    1,  0,     0.000,     0.000,   0
  3374,'1 ',   1,   4,   7,    18.800,     7.120,     0.000,     0.000,     0.000,     0.000,   1,    1,  0,     0.000,     0.000,   0
  3374,'2 ',   1,   4,   7,    18.800,     7.020,     0.000,     0.000,     0.000,     0.000,   1,    1,  0,     0.000,     0.000,   0
  3375,'1 ',   1,   4,   7,    51.260,    24.640,     0.000,     0.000,     0.000,     0.000,   1,    1,  0,     0.000,     0.000,   0
  3376,'3 ',   1,   4,   7,    26.430,    10.640,     0.000,     0.000,     0.000,     0.000,   1,    1,  0,     0.000,     0.000,   0
  3376,'4 ',   1,   4,   7,    26.430,    10.650,     0.000,     0.000,     0.000,     0.000,   1,    1,  0,     0.000,     0.000,   0
  3377,'1 ',   1,   4,   7,    14.060,     4.600,     0.000,     0.000,     0.000,     0.000,   1,    1,  0,     0.000,     0.000,   0
  3377,'3 ',   1,   4,   7,     7.780,     2.480,     0.000,     0.000,     0.000,     0.000,   1,    1,  0,     0.000,     0.000,   0
  3378,'AT',   1,   4,   7,     3.280,     1.870,     0.000,     0.000,     0.000,     0.000,   1,    0,  0,     0.000,     0.000,   0
  3379,'2 ',   1,   4,   7,    14.060,     4.600,     0.000,     0.000,     0.000,     0.000,   1,    1,  0,     0.000,     0.000,   0
  3379,'4 ',   1,   4,   7,     7.780,     2.480,     0.000,     0.000,     0.000,     0.000,   1,    1,  0,     0.000,     0.000,   0
  3380,'1 ',   1,   4,   7,    45.410,    21.850,     0.000,     0.000,     0.000,     0.000,   1,    1,  0,     0.000,     0.000,   0
  3380,'4 ',   1,   4,   7,     0.000,     0.000,     0.000,     0.000,     0.000,     0.000,   1,    1,  0,     0.000,     0.000,   0
  3382,'1 ',   1,   4,   7,    48.480,    22.550,     0.000,     0.000,     0.000,     0.000,   1,    1,  0,     0.000,     0.000,   0
  3386,'4 ',   1,   4,   7,    62.220,    30.200,     0.000,     0.000,     0.000,     0.000,   1,    1,  0,     0.000,     0.000,   0
  3387,'2 ',   1,   4,   7,    62.220,    30.940,     0.000,     0.000,     0.000,     0.000,   1,    1,  0,     0.000,     0.000,   0
  3388,'1 ',   1,   4,   7,    49.830,    23.130,     0.000,     0.000,     0.000,     0.000,   1,    1,  0,     0.000,     0.000,   0
  3390,'1 ',   1,   4,   7,    52.830,    24.560,     0.000,     0.000,     0.000,     0.000,   1,    1,  0,     0.000,     0.000,   0
  3391,'2 ',   1,   4,   7,    52.830,    24.480,     0.000,     0.000,     0.000,     0.000,   1,    1,  0,     0.000,     0.000,   0
  3392,'2 ',   1,   4,   7,    48.480,    22.550,     0.000,     0.000,     0.000,     0.000,   1,    1,  0,     0.000,     0.000,   0
  3395,'2 ',   1,   4,   7,    49.830,    23.170,     0.000,     0.000,     0.000,     0.000,   1,    1,  0,     0.000,     0.000,   0
  3397,'1 ',   1,   4,   7,    36.310,    12.700,     0.000,     0.000,     0.000,     0.000,   1,    1,  0,     0.000,     0.000,   0
  3398,'1 ',   1,   4,   8,    67.947,    31.562,     0.000,     0.000,     0.000,     0.000,   1,    1,  0,     0.000,     0.000,   0
  3399,'1 ',   1,   4,   8,    68.669,    31.866,     0.000,     0.000,     0.000,     0.000,   1,    1,  0,     0.000,     0.000,   0
  3405,'2 ',   1,   4,   7,    36.310,    12.690,     0.000,     0.000,     0.000,     0.000,   1,    1,  0,     0.000,     0.000,   0
  3411,'1 ',   1,   4,   7,    26.180,    10.720,     0.000,     0.000,     0.000,     0.000,   1,    1,  0,     0.000,     0.000,   0
  3411,'3 ',   1,   4,   7,    17.550,     6.720,     0.000,     0.000,     0.000,     0.000,   1,    1,  0,     0.000,     0.000,   0
  3412,'2 ',   1,   4,   7,    26.180,    10.710,     0.000,     0.000,     0.000,     0.000,   1,    1,  0,     0.000,     0.000,   0
  3412,'4 ',   1,   4,   7,    17.550,     6.730,     0.000,     0.000,     0.000,     0.000,   1,    1,  0,     0.000,     0.000,   0
  3420,'3 ',   1,   4,   7,    30.700,    15.650,     0.000,     0.000,     0.000,     0.000,   1,    1,  0,     0.000,     0.000,   0
  3420,'4 ',   1,   4,   7,    30.700,    15.650,     0.000,     0.000,     0.000,     0.000,   1,    1,  0,     0.000,     0.000,   0
  3420,'5 ',   1,   4,   7,    30.700,    15.650,     0.000,     0.000,     0.000,     0.000,   1,    1,  0,     0.000,     0.000,   0
  3427,'3 ',   1,   4,   7,    19.410,     9.080,     0.000,     0.000,     0.000,     0.000,   1,    1,  0,     0.000,     0.000,   0
  3430,'1 ',   1,   4,   7,     7.650,     2.260,     0.000,     0.000,     0.000,     0.000,   1,    1,  0,     0.000,     0.000,   0
  3430,'2 ',   1,   4,   7,     7.650,     2.240,     0.000,     0.000,     0.000,     0.000,   1,    1,  0,     0.000,     0.000,   0
  3431,'1 ',   1,   4,   7,    38.010,    14.950,     0.000,     0.000,     0.000,     0.000,   1,    1,  0,     0.000,     0.000,   0
  3431,'2 ',   1,   4,   7,    38.010,    14.880,     0.000,     0.000,     0.000,     0.000,   1,    1,  0,     0.000,     0.000,   0
  3434,'1 ',   1,   4,   7,    28.630,    12.610,     0.000,     0.000,     0.000,     0.000,   1,    1,  0,     0.000,     0.000,   0
  3434,'2 ',   1,   4,   7,    28.630,    12.460,     0.000,     0.000,     0.000,     0.000,   1,    1,  0,     0.000,     0.000,   0
  3434,'21',   1,   4,   7,    11.160,     5.950,     0.000,     0.000,     0.000,     0.000,   1,    0,  0,     0.000,     0.000,   0
  3434,'4 ',   1,   4,   7,    57.250,    26.740,     0.000,     0.000,     0.000,     0.000,   1,    1,  0,     0.000,     0.000,   0
  3435,'1 ',   1,   4,   7,    60.190,    30.630,     0.000,     0.000,     0.000,     0.000,   1,    1,  0,     0.000,     0.000,   0
  3444,'SC',   1,   4,   7,     0.000,     0.000,     0.000,     0.000,     0.000,     0.000,   1,    1,  0,     0.000,     0.000,   0
  3445,'SC',   1,   4,   7,     0.000,     0.000,     0.000,     0.000,     0.000,     0.000,   1,    1,  0,     0.000,     0.000,   0
  3448,'1 ',   1,   4,   7,    28.330,    10.390,     0.000,     0.000,     0.000,     0.000,   1,    1,  0,     0.000,     0.000,   0
  3450,'1 ',   1,   4,   7,    65.380,    33.680,     0.000,     0.000,     0.000,     0.000,   1,    1,  0,     0.000,     0.000,   0
  3451,'1 ',   1,   4,   7,    21.500,     7.450,     0.000,     0.000,     0.000,     0.000,   1,    1,  0,     0.000,     0.000,   0
  3452,'1 ',   1,   4,   7,    23.720,     8.870,     0.000,     0.000,     0.000,     0.000,   1,    1,  0,     0.000,     0.000,   0
  3452,'2 ',   1,   4,   7,    23.720,     8.870,     0.000,     0.000,     0.000,     0.000,   1,    1,  0,     0.000,     0.000,   0
  3453,'1 ',   1,   4,   7,    26.050,     9.940,     0.000,     0.000,     0.000,     0.000,   1,    1,  0,     0.000,     0.000,   0
  3453,'2 ',   1,   4,   7,    26.050,     9.930,     0.000,     0.000,     0.000,     0.000,   1,    1,  0,     0.000,     0.000,   0
  3454,'1 ',   1,   4,   8,    80.319,    40.159,     0.000,     0.000,     0.000,     0.000,   1,    1,  0,     0.000,     0.000,   0
  3455,'2 ',   1,   4,   7,    21.500,     7.440,     0.000,     0.000,     0.000,     0.000,   1,    1,  0,     0.000,     0.000,   0
  3456,'AT',   1,   4,   7,     3.880,     2.220,     0.000,     0.000,     0.000,     0.000,   1,    0,  0,     0.000,     0.000,   0
  3457,'1 ',   1,   4,   7,    42.650,    18.290,     0.000,     0.000,     0.000,     0.000,   1,    1,  0,     0.000,     0.000,   0
  3457,'2 ',   1,   4,   7,    42.650,    18.500,     0.000,     0.000,     0.000,     0.000,   1,    1,  0,     0.000,     0.000,   0
  3466,'1 ',   1,   4,   7,    30.810,    13.080,     0.000,     0.000,     0.000,     0.000,   1,    1,  0,     0.000,     0.000,   0
  3466,'2 ',   1,   4,   7,    30.810,    13.080,     0.000,     0.000,     0.000,     0.000,   1,    1,  0,     0.000,     0.000,   0
  3466,'3 ',   1,   4,   7,    30.810,    13.080,     0.000,     0.000,     0.000,     0.000,   1,    1,  0,     0.000,     0.000,   0
  3466,'4 ',   1,   4,   7,    30.810,    13.080,     0.000,     0.000,     0.000,     0.000,   1,    1,  0,     0.000,     0.000,   0
  3468,'1 ',   1,   4,   7,    56.490,    27.980,     0.000,     0.000,     0.000,     0.000,   1,    1,  0,     0.000,     0.000,   0
  3470,'2 ',   1,   4,   7,    56.490,    27.920,     0.000,     0.000,     0.000,     0.000,   1,    1,  0,     0.000,     0.000,   0
  3471,'1 ',   1,   4,   7,    27.310,    11.230,     0.000,     0.000,     0.000,     0.000,   1,    1,  0,     0.000,     0.000,   0
  3475,'2 ',   1,   4,   7,    51.260,    24.590,     0.000,     0.000,     0.000,     0.000,   1,    1,  0,     0.000,     0.000,   0
  3478,'1 ',   1,   4,   7,    32.710,    14.110,     0.000,     0.000,     0.000,     0.000,   1,    1,  0,     0.000,     0.000,   0
  3479,'1 ',   1,   4,   7,    41.830,    16.300,     0.000,     0.000,     0.000,     0.000,   1,    1,  0,     0.000,     0.000,   0
  3481,'2 ',   1,   4,   7,    65.380,    33.570,     0.000,     0.000,     0.000,     0.000,   1,    1,  0,     0.000,     0.000,   0
  3483,'2 ',   1,   4,   7,    60.190,    30.560,     0.000,     0.000,     0.000,     0.000,   1,    1,  0,     0.000,     0.000,   0
  3485,'2 ',   1,   4,   7,    28.520,    11.910,     0.000,     0.000,     0.000,     0.000,   1,    1,  0,     0.000,     0.000,   0
  3487,'4 ',   1,   4,   7,    19.410,     9.110,     0.000,     0.000,     0.000,     0.000,   1,    1,  0,     0.000,     0.000,   0
  3489,'1 ',   1,   4,   7,     0.000,     0.000,     0.000,     0.000,     0.000,     0.000,   1,    1,  0,     0.000,     0.000,   0
  3489,'2 ',   1,   4,   7,     0.000,     0.000,     0.000,     0.000,     0.000,     0.000,   1,    1,  0,     0.000,     0.000,   0
  3490,'1 ',   1,   4,   7,    29.420,    10.900,     0.000,     0.000,     0.000,     0.000,   1,    1,  0,     0.000,     0.000,   0
  3490,'2 ',   1,   4,   7,    29.420,    10.900,     0.000,     0.000,     0.000,     0.000,   1,    1,  0,     0.000,     0.000,   0
  3491,'1 ',   1,   4,   7,     0.000,     0.000,     0.000,     0.000,     0.000,     0.000,   1,    1,  0,     0.000,     0.000,   0
  3491,'2 ',   1,   4,   7,     0.000,     0.000,     0.000,     0.000,     0.000,     0.000,   1,    1,  0,     0.000,     0.000,   0
  3492,'1 ',   1,   4,   7,    52.200,    25.620,     0.000,     0.000,     0.000,     0.000,   1,    1,  0,     0.000,     0.000,   0
  3493,'SC',   1,   4,   7,     0.000,     0.000,     0.000,     0.000,     0.000,     0.000,   1,    1,  0,     0.000,     0.000,   0
  3494,'1 ',   1,   4,   7,    25.830,     9.250,     0.000,     0.000,     0.000,     0.000,   1,    1,  0,     0.000,     0.000,   0
  3495,'1 ',   1,   4,   7,     0.000,     0.000,     0.000,     0.000,     0.000,     0.000,   1,    1,  0,     0.000,     0.000,   0
  3496,'2 ',   1,   4,   7,    25.830,     9.250,     0.000,     0.000,     0.000,     0.000,   1,    1,  0,     0.000,     0.000,   0
  3497,'2 ',   1,   4,   7,     0.000,     0.000,     0.000,     0.000,     0.000,     0.000,   1,    1,  0,     0.000,     0.000,   0
  3498,'1 ',   1,   4,   8,    36.742,    16.945,     0.000,     0.000,     0.000,     0.000,   1,    1,  0,     0.000,     0.000,   0
  3499,'1 ',   1,   4,   8,    42.924,    19.837,     0.000,     0.000,     0.000,     0.000,   1,    1,  0,     0.000,     0.000,   0
  3512,'1 ',   1,   4,   8,    29.023,    13.997,     0.000,     0.000,     0.000,     0.000,   1,    1,  0,     0.000,     0.000,   0
  3522,'2 ',   0,   4,   8,    11.603,     4.574,     0.000,     0.000,     0.000,     0.000,   1,    1,  0,     0.000,     0.000,   0
  3522,'3 ',   0,   4,   8,     0.000,     0.000,     0.000,     0.000,     0.000,     0.000,   1,    1,  0,     0.000,     0.000,   0
  3522,'4 ',   1,   4,   8,     0.000,     0.000,     0.000,     0.000,     0.000,     0.000,   1,    1,  0,     0.000,     0.000,   0
  3522,'5 ',   1,   4,   8,     0.000,     0.000,     0.000,     0.000,     0.000,     0.000,   1,    1,  0,     0.000,     0.000,   0
  3522,'6 ',   1,   4,   8,     0.000,     0.000,     0.000,     0.000,     0.000,     0.000,   1,    1,  0,     0.000,     0.000,   0
  3522,'7 ',   1,   4,   8,     0.000,     0.000,     0.000,     0.000,     0.000,     0.000,   1,    1,  0,     0.000,     0.000,   0
  3522,'8 ',   1,   4,   8,     0.000,     0.000,     0.000,     0.000,     0.000,     0.000,   1,    1,  0,     0.000,     0.000,   0
  3523,'1 ',   1,   4,   7,     0.000,     0.000,     0.000,     0.000,     0.000,     0.000,   1,    1,  0,     0.000,     0.000,   0
  3523,'2 ',   1,   4,   7,     0.000,     0.000,     0.000,     0.000,     0.000,     0.000,   1,    1,  0,     0.000,     0.000,   0
  3523,'3 ',   1,   4,   7,     0.000,     0.000,     0.000,     0.000,     0.000,     0.000,   1,    1,  0,     0.000,     0.000,   0
  3523,'4 ',   1,   4,   7,     0.000,     0.000,     0.000,     0.000,     0.000,     0.000,   1,    1,  0,     0.000,     0.000,   0
  3523,'5 ',   1,   4,   7,     0.000,     0.000,     0.000,     0.000,     0.000,     0.000,   1,    1,  0,     0.000,     0.000,   0
  3527,'2 ',   0,   4,   8,     0.000,     0.000,     0.000,     0.000,     0.000,     0.000,   1,    1,  0,     0.000,     0.000,   0
  3527,'3 ',   0,   4,   8,     0.000,     0.000,     0.000,     0.000,     0.000,     0.000,   1,    1,  0,     0.000,     0.000,   0
  3542,'1 ',   1,   4,   7,    20.140,     7.720,     0.000,     0.000,     0.000,     0.000,   1,    1,  0,     0.000,     0.000,   0
  3543,'2 ',   1,   4,   7,    20.140,     7.720,     0.000,     0.000,     0.000,     0.000,   1,    1,  0,     0.000,     0.000,   0
...
0 / END OF LOAD DATA, BEGIN FIXED SHUNT DATA
@!   I,'ID',STATUS,  GL,        BL
0 / END OF FIXED SHUNT DATA, BEGIN GENERATOR DATA
@!   I,'ID',      PG,        QG,        QT,        QB,     VS,    IREG,     MBASE,     ZR,         ZX,         RT,         XT,     GTAP,STAT, RMPCT,      PT,        PB,    O1,    F1,  O2,    F2,  O3,    F3,  O4,    F4,WMOD, WPF,NREG
  3574,'1 ',     1.250,     0.030,     1.080,    -0.540,1.02900,  3574,     1.800, 0.00000E+0, 1.00000E-1, 0.00000E+0, 0.00000E+0,1.00000,1,  100.0,     1.400,     0.000,   1,1.0000
  3575,'1 ',     1.250,     0.030,     1.080,    -0.540,1.02900,  3575,     1.800, 0.00000E+0, 1.00000E-1, 0.00000E+0, 0.00000E+0,1.00000,1,  100.0,     1.400,     0.000,   1,1.0000
  3576,'1 ',     1.250,     0.030,     1.080,    -0.540,1.02900,  3576,     1.800, 0.00000E+0, 1.00000E-1, 0.00000E+0, 0.00000E+0,1.00000,1,  100.0,     1.400,     0.000,   1,1.0000
  3577,'1 ',     1.250,     0.030,     1.080,    -0.540,1.02900,  3577,     1.800, 0.00000E+0, 1.00000E-1, 0.00000E+0, 0.00000E+0,1.00000,1,  100.0,     1.400,     0.000,   1,1.0000
  3578,'1 ',     1.250,    -0.075,     1.080,    -0.540,1.02900,  3578,     1.800, 0.00000E+0, 1.00000E-1, 0.00000E+0, 0.00000E+0,1.00000,1,  100.0,     1.400,     0.000,   1,1.0000
  3665,'5 ',    90.000,   -20.000,    77.000,   -20.000,1.02900,  3665,   133.000, 0.00000E+0, 1.40000E-1, 0.00000E+0, 1.11050E-1,1.00000,0,   40.0,   110.000, -9999.000,   1,1.0000
  3666,'6 ',   240.000,    44.398,   200.000,   -40.000,1.02900,  3396,   333.000, 0.00000E+0, 2.50000E-1, 0.00000E+0, 0.00000E+0,1.00000,1,   55.0,   250.000,    95.000,   1,1.0000
  3667,'11',   210.000,    29.336,   156.000,   -50.000,1.02900,  3430,   303.000, 0.00000E+0, 1.89000E-1, 0.00000E+0, 0.00000E+0,1.00000,1,   50.0,   252.000,   100.000,   1,1.0000
  3668,'12',   210.000,   108.939,   156.000,   -50.000,1.02900,  3428,   303.000, 0.00000E+0, 1.89000E-1, 0.00000E+0, 0.00000E+0,1.00000,1,  100.0,   252.000,   100.000,   1,1.0000
  3669,'10',   230.000,    36.326,   165.000,   -50.000,1.02900,  3396,   333.000, 0.00000E+0, 2.08000E-1, 0.00000E+0, 0.00000E+0,1.00000,1,   45.0,   283.000,   100.000,   1,1.0000
  3671,'1 ',    19.000,    10.300,    10.300,    -9.000,1.02900,  3671,    24.000, 0.00000E+0, 1.88000E-1, 0.00000E+0, 0.00000E+0,1.00000,1,  100.0,    19.200,     0.000,   1,1.0000
  3672,'1 ',    19.000,    10.300,    10.300,    -9.000,1.02900,  3672,    24.000, 0.00000E+0, 1.88000E-1, 0.00000E+0, 0.00000E+0,1.00000,1,  100.0,    19.200,     0.000,   1,1.0000
  3677,'7 ',   110.000,   -30.000,   142.000,   -90.000,1.02900,  3677,   165.000, 0.00000E+0, 2.09000E-1, 0.00000E+0, 0.00000E+0,1.00000,0,  100.0,   145.000,    30.000,   1,1.0000
  3678,'8 ',   150.000,    13.825,   103.000,   -50.000,1.02900,  3678,   229.000, 0.00000E+0, 1.20000E-1, 0.00000E+0, 1.13580E-1,1.00000,1,   40.0,   194.000,  -185.000,   1,1.0000
  3679,'9 ',   240.000,    29.336,   122.000,   -50.000,1.02900,  3430,   294.000, 0.00000E+0, 1.68000E-1, 0.00000E+0, 0.00000E+0,1.00000,1,   50.0,   250.000,  -200.000,   1,1.0000
  9301,'01',    20.000,    10.322,    14.100,   -10.000,1.02900,  9301,    26.820, 0.00000E+0, 1.72000E-1, 0.00000E+0, 0.00000E+0,1.00000,1,  100.0,    22.800,     8.000,   1,1.0000
  9302,'02',    20.000,    10.322,    14.100,   -10.000,1.02900,  9302,    26.820, 0.00000E+0, 1.72000E-1, 0.00000E+0, 0.00000E+0,1.00000,1,  100.0,    22.800,     8.000,   1,1.0000
  9303,'03',    20.000,    10.322,    14.100,   -10.000,1.02900,  9303,    26.820, 0.00000E+0, 1.72000E-1, 0.00000E+0, 0.00000E+0,1.00000,1,  100.0,    22.800,     8.000,   1,1.0000
  9304,'04',    20.000,    10.322,    14.100,   -10.000,1.02900,  9304,    26.820, 0.00000E+0, 1.72000E-1, 0.00000E+0, 0.00000E+0,1.00000,1,  100.0,    22.800,     8.000,   1,1.0000
  9305,'05',    20.000,    10.322,    14.100,   -10.000,1.02900,  9305,    26.820, 0.00000E+0, 1.72000E-1, 0.00000E+0, 0.00000E+0,1.00000,1,  100.0,    22.800,     8.000,   1,1.0000
  9306,'06',    20.000,    10.322,    14.100,   -10.000,1.02900,  9306,    26.820, 0.00000E+0, 1.72000E-1, 0.00000E+0, 0.00000E+0,1.00000,1,  100.0,    22.800,     8.000,   1,1.0000
  9307,'07',    20.000,    10.322,    14.100,   -10.000,1.02900,  9307,    26.820, 0.00000E+0, 1.72000E-1, 0.00000E+0, 0.00000E+0,1.00000,1,  100.0,    22.800,     8.000,   1,1.0000
  9308,'08',    20.000,    10.322,    14.100,   -10.000,1.02900,  9308,    26.820, 0.00000E+0, 1.72000E-1, 0.00000E+0, 0.00000E+0,1.00000,1,  100.0,    22.800,     8.000,   1,1.0000
  9309,'09',    20.000,    10.322,    14.100,   -10.000,1.02900,  9309,    26.820, 0.00000E+0, 1.72000E-1, 0.00000E+0, 0.00000E+0,1.00000,1,  100.0,    22.800,     8.000,   1,1.0000
  9310,'10',    20.000,    10.322,    14.100,   -10.000,1.02900,  9310,    26.820, 0.00000E+0, 1.72000E-1, 0.00000E+0, 0.00000E+0,1.00000,1,  100.0,    22.800,     8.000,   1,1.0000
  9311,'1 ',    25.000,    10.071,    12.738,    -8.000,1.02900,  9311,    29.220, 0.00000E+0, 1.79000E-1, 0.00000E+0, 0.00000E+0,1.00000,1,  100.0,    28.000,     2.800,   1,1.0000
  9312,'2 ',    25.000,    10.071,    12.738,    -8.000,1.02900,  9312,    29.220, 0.00000E+0, 1.79000E-1, 0.00000E+0, 0.00000E+0,1.00000,1,  100.0,    28.000,     2.800,   1,1.0000
  9313,'3 ',    25.000,     7.029,    12.738,    -8.000,1.02900,  9313,    29.220, 0.00000E+0, 1.79000E-1, 0.00000E+0, 0.00000E+0,1.00000,1,  100.0,    28.000,     2.800,   1,1.0000
  9314,'4 ',    25.000,     7.029,    12.738,    -8.000,1.02900,  9314,    29.220, 0.00000E+0, 1.79000E-1, 0.00000E+0, 0.00000E+0,1.00000,1,  100.0,    28.000,     2.800,   1,1.0000
  9315,'1 ',    16.000,    12.600,    12.600,    -8.000,1.04900,  9315,    21.000, 0.00000E+0, 1.87000E-1, 0.00000E+0, 0.00000E+0,1.00000,1,  100.0,    16.800,     4.000,   1,1.0000
  9315,'2 ',    16.000,    12.600,    12.600,    -8.000,1.04900,  9315,    21.000, 0.00000E+0, 1.87000E-1, 0.00000E+0, 0.00000E+0,1.00000,1,  100.0,    16.800,     4.000,   1,1.0000
  9315,'3 ',    16.000,    12.600,    12.600,    -8.000,1.04900,  9315,    21.000, 0.00000E+0, 1.87000E-1, 0.00000E+0, 0.00000E+0,1.00000,1,  100.0,    16.800,     4.000,   1,1.0000
  9316,'4 ',    16.000,    12.600,    12.600,    -8.000,1.04900,  9316,    21.000, 0.00000E+0, 1.87000E-1, 0.00000E+0, 0.00000E+0,1.00000,1,  100.0,    16.800,     4.000,   1,1.0000
  9316,'5 ',    16.000,    12.600,    12.600,    -8.000,1.04900,  9316,    21.000, 0.00000E+0, 1.87000E-1, 0.00000E+0, 0.00000E+0,1.00000,1,  100.0,    16.800,     4.000,   1,1.0000
  9316,'6 ',    16.000,    12.600,    12.600,    -8.000,1.04900,  9316,    21.000, 0.00000E+0, 1.87000E-1, 0.00000E+0, 0.00000E+0,1.00000,1,  100.0,    16.800,     4.000,   1,1.0000
  9317,'1 ',    63.500,    37.602,    40.900,   -10.000,1.02900,  3439,    77.650, 0.00000E+0, 1.60000E-1, 0.00000E+0, 0.00000E+0,1.00000,1,  100.0,    66.000,     8.000,   1,1.0000
  9318,'2 ',    63.500,    22.463,    40.900,   -10.000,1.02900,  3439,    77.650, 0.00000E+0, 1.60000E-1, 0.00000E+0, 0.00000E+0,1.00000,1,  100.0,    66.000,     8.000,   1,1.0000
  9319,'3 ',    63.500,    19.995,    40.900,   -10.000,1.02900,  3439,    77.650, 0.00000E+0, 1.60000E-1, 0.00000E+0, 0.00000E+0,1.00000,1,  100.0,    66.000,     8.000,   1,1.0000
  9320,'4 ',    63.500,    19.995,    40.900,   -10.000,1.02900,  3439,    77.650, 0.00000E+0, 1.60000E-1, 0.00000E+0, 0.00000E+0,1.00000,1,  100.0,    66.000,     8.000,   1,1.0000
  9567,'1 ',     1.400,     0.165,     1.047,    -0.489,1.04900,  9567,     1.750, 4.00000E-2, 1.39000E-1, 0.00000E+0, 0.00000E+0,1.00000,1,  100.0,     1.745,     0.000,   1,1.0000
  9568,'1 ',     1.400,     0.165,     1.047,    -0.489,1.04900,  9568,     1.750, 4.00000E-2, 1.39000E-1, 0.00000E+0, 0.00000E+0,1.00000,1,  100.0,     1.745,     0.000,   1,1.0000
  9569,'1 ',     1.400,     0.165,     1.047,    -0.489,1.04900,  9569,     1.750, 4.00000E-2, 1.39000E-1, 0.00000E+0, 0.00000E+0,1.00000,1,  100.0,     1.745,     0.000,   1,1.0000
  9570,'1 ',     1.400,     0.165,     1.047,    -0.489,1.04900,  9570,     1.750, 4.00000E-2, 1.39000E-1, 0.00000E+0, 0.00000E+0,1.00000,1,  100.0,     1.745,     0.000,   1,1.0000
  9571,'1 ',     1.400,     0.150,     1.047,    -0.489,1.04900,  9571,     1.750, 4.00000E-2, 1.39000E-1, 0.00000E+0, 0.00000E+0,1.00000,1,  100.0,     1.745,     0.000,   1,1.0000
  9572,'1 ',     1.660,     0.009,     1.473,    -0.490,1.04900,  9572,     2.460, 0.00000E+0, 3.31000E-1, 0.00000E+0, 0.00000E+0,1.00000,1,  100.0,     1.967,     0.000,   1,1.0000
  9573,'1 ',     1.660,     0.009,     1.473,    -0.490,1.04900,  9573,     2.460, 0.00000E+0, 3.31000E-1, 0.00000E+0, 0.00000E+0,1.00000,1,  100.0,     1.967,     0.000,   1,1.0000
  9574,'1 ',     1.660,     0.009,     1.473,    -0.490,1.04900,  9574,     2.460, 0.00000E+0, 3.31000E-1, 0.00000E+0, 0.00000E+0,1.00000,1,  100.0,     1.967,     0.000,   1,1.0000
  9575,'1 ',     1.660,     0.012,     1.473,    -0.490,1.04900,  9575,     2.460, 0.00000E+0, 3.31000E-1, 0.00000E+0, 0.00000E+0,1.00000,1,  100.0,     1.967,     0.000,   1,1.0000
  9576,'1 ',     1.660,     0.012,     1.473,    -0.490,1.04900,  9576,     2.460, 0.00000E+0, 3.31000E-1, 0.00000E+0, 0.00000E+0,1.00000,1,  100.0,     1.967,     0.000,   1,1.0000
  9577,'1 ',     1.660,     0.012,     1.473,    -0.490,1.04900,  9577,     2.460, 0.00000E+0, 3.31000E-1, 0.00000E+0, 0.00000E+0,1.00000,1,  100.0,     1.967,     0.000,   1,1.0000
300004,'1 ',   300.000,     9.719,   156.200,  -134.900,1.02900,300004,   355.000, 0.00000E+0, 1.52000E-1, 0.00000E+0, 0.00000E+0,1.00000,1,  100.0,   320.000,   160.000,   1,1.0000
300011,'1 ',     1.250,    -0.015,     1.080,    -0.540,1.04900,300011,     1.800, 0.00000E+0, 1.00000E-1, 0.00000E+0, 0.00000E+0,1.00000,1,  100.0,     1.400,     0.000,   1,1.0000
300012,'1 ',     1.250,    -0.015,     1.080,    -0.540,1.04900,300012,     1.800, 0.00000E+0, 1.00000E-1, 0.00000E+0, 0.00000E+0,1.00000,1,  100.0,     1.400,     0.000,   1,1.0000
300013,'1 ',     1.250,    -0.015,     1.080,    -0.540,1.04900,300013,     1.800, 0.00000E+0, 1.00000E-1, 0.00000E+0, 0.00000E+0,1.00000,1,  100.0,     1.400,     0.000,   1,1.0000
300014,'1 ',     1.250,    -0.015,     1.080,    -0.540,1.04900,300014,     1.800, 0.00000E+0, 1.00000E-1, 0.00000E+0, 0.00000E+0,1.00000,1,  100.0,     1.400,     0.000,   1,1.0000
300015,'1 ',     1.250,    -0.309,     1.080,    -0.540,1.04900,300015,     1.800, 0.00000E+0, 1.00000E-1, 0.00000E+0, 0.00000E+0,1.00000,0,  100.0,     1.400,     0.000,   1,1.0000
300021,'1 ',     1.250,    -0.016,     1.080,    -0.540,1.04900,300021,     1.800, 0.00000E+0, 1.00000E-1, 0.00000E+0, 0.00000E+0,1.00000,1,  100.0,     1.400,     0.000,   1,1.0000
300022,'1 ',     1.250,    -0.016,     1.080,    -0.540,1.04900,300022,     1.800, 0.00000E+0, 1.00000E-1, 0.00000E+0, 0.00000E+0,1.00000,1,  100.0,     1.400,     0.000,   1,1.0000
300023,'1 ',     1.250,    -0.016,     1.080,    -0.540,1.04900,300023,     1.800, 0.00000E+0, 1.00000E-1, 0.00000E+0, 0.00000E+0,1.00000,1,  100.0,     1.400,     0.000,   1,1.0000
300024,'1 ',     1.250,    -0.016,     1.080,    -0.540,1.04900,300024,     1.800, 0.00000E+0, 1.00000E-1, 0.00000E+0, 0.00000E+0,1.00000,1,  100.0,     1.400,     0.000,   1,1.0000
300025,'1 ',     1.250,    -0.310,     1.080,    -0.540,1.04900,300025,     1.800, 0.00000E+0, 1.00000E-1, 0.00000E+0, 0.00000E+0,1.00000,0,  100.0,     1.400,     0.000,   1,1.0000
0 / END OF GENERATOR DATA, BEGIN BRANCH DATA
...